5
i =        0, time =        0.000, E =        -7.5473172209	mol_index=1	SYM_TXT_CODE=L01_c2
C          0.00000        0.00000        0.00000
H          0.00000        0.00000        1.08900
H          1.02672        0.00000       -0.36300
H         -0.51336       -0.88916       -0.36300
H         -0.51336        0.88916       -0.36300
5
i =        0, time =        0.000, E =        -7.5473172209	mol_index=1	SYM_TXT_CODE=L02_c3
C          0.00000        0.00000        0.00000
H          0.00000        0.00000        1.08900
H          1.02672        0.00000       -0.36300
H         -0.51336       -0.88916       -0.36300
H         -0.51336        0.88916       -0.36300
5
i =        0, time =        0.000, E =        -7.5473172209	mol_index=1	SYM_TXT_CODE=L03_cs
C          0.00000        0.00000        0.00000
H          0.00000        0.00000        1.08900
H          1.02672        0.00000       -0.36300
H         -0.51336       -0.88916       -0.36300
H         -0.51336        0.88916       -0.36300
5
i =        0, time =        0.000, E =        -7.5473172209	mol_index=1	SYM_TXT_CODE=L04_s4
C          0.00000        0.00000        0.00000
H          0.00000        0.00000        1.08900
H          1.02672        0.00000       -0.36300
H         -0.51336       -0.88916       -0.36300
H         -0.51336        0.88916       -0.36300
5
i =        0, time =        0.000, E =        -7.5473172209	mol_index=1	SYM_TXT_CODE=L05_ch
C          0.00000        0.00000        0.00000
H          0.00000        0.00000        1.08900
H          1.02672        0.00000       -0.36300
H         -0.51336       -0.88916       -0.36300
H         -0.51336        0.88916       -0.36300
5
i =        2, time =        0.800, E =        -7.5504891018	mol_index=2	SYM_TXT_CODE=L01_c2
C          0.00927        0.00259       -0.00358
H          0.00011       -0.02173        1.10101
H          1.02498        0.00820       -0.36208
H         -0.51112       -0.89046       -0.36958
H         -0.52324        0.90140       -0.36578
5
i =        2, time =        0.800, E =        -7.5504891018	mol_index=2	SYM_TXT_CODE=L02_c3
C          0.00927        0.00259       -0.00358
H          0.00011       -0.02173        1.10101
H          1.02498        0.00820       -0.36208
H         -0.51112       -0.89046       -0.36958
H         -0.52324        0.90140       -0.36578
5
i =        2, time =        0.800, E =        -7.5504891018	mol_index=2	SYM_TXT_CODE=L03_cs
C          0.00927        0.00259       -0.00358
H          0.00011       -0.02173        1.10101
H          1.02498        0.00820       -0.36208
H         -0.51112       -0.89046       -0.36958
H         -0.52324        0.90140       -0.36578
5
i =        2, time =        0.800, E =        -7.5504891018	mol_index=2	SYM_TXT_CODE=L04_s4
C          0.00927        0.00259       -0.00358
H          0.00011       -0.02173        1.10101
H          1.02498        0.00820       -0.36208
H         -0.51112       -0.89046       -0.36958
H         -0.52324        0.90140       -0.36578
5
i =        2, time =        0.800, E =        -7.5504891018	mol_index=2	SYM_TXT_CODE=L05_ch
C          0.00927        0.00259       -0.00358
H          0.00011       -0.02173        1.10101
H          1.02498        0.00820       -0.36208
H         -0.51112       -0.89046       -0.36958
H         -0.52324        0.90140       -0.36578
5
i =        4, time =        1.600, E =        -7.5561533990	mol_index=3	SYM_TXT_CODE=L01_c2
C          0.01850        0.00561       -0.00689
H          0.00352       -0.04817        1.11669
H          1.02951        0.02255       -0.35942
H         -0.51760       -0.89444       -0.37432
H         -0.53393        0.91446       -0.37606
5
i =        4, time =        1.600, E =        -7.5561533990	mol_index=3	SYM_TXT_CODE=L02_c3
C          0.01850        0.00561       -0.00689
H          0.00352       -0.04817        1.11669
H          1.02951        0.02255       -0.35942
H         -0.51760       -0.89444       -0.37432
H         -0.53393        0.91446       -0.37606
5
i =        4, time =        1.600, E =        -7.5561533990	mol_index=3	SYM_TXT_CODE=L03_cs
C          0.01850        0.00561       -0.00689
H          0.00352       -0.04817        1.11669
H          1.02951        0.02255       -0.35942
H         -0.51760       -0.89444       -0.37432
H         -0.53393        0.91446       -0.37606
5
i =        4, time =        1.600, E =        -7.5561533990	mol_index=3	SYM_TXT_CODE=L04_s4
C          0.01850        0.00561       -0.00689
H          0.00352       -0.04817        1.11669
H          1.02951        0.02255       -0.35942
H         -0.51760       -0.89444       -0.37432
H         -0.53393        0.91446       -0.37606
5
i =        4, time =        1.600, E =        -7.5561533990	mol_index=3	SYM_TXT_CODE=L05_ch
C          0.01850        0.00561       -0.00689
H          0.00352       -0.04817        1.11669
H          1.02951        0.02255       -0.35942
H         -0.51760       -0.89444       -0.37432
H         -0.53393        0.91446       -0.37606
