5
i =        0, time =        0.000, E =        -7.5473172209	mol_index=1	SYM_TXT_CODE=L01_c2
C          0.00000        0.00000        0.00000
H          0.00000        0.00000        1.08900
H          1.02672        0.00000       -0.36300
H         -0.51336       -0.88916       -0.36300
H         -0.51336        0.88916       -0.36300
5
i =        0, time =        0.000, E =        -7.5473172209	mol_index=1	SYM_TXT_CODE=L02_c3
C          0.00000        0.00000        0.00000
H          0.00000        0.00000        1.08900
H          1.02672        0.00000       -0.36300
H         -0.51336       -0.88917       -0.36300
H         -0.51336        0.88917       -0.36300
5
i =        0, time =        0.000, E =        -7.5473172209	mol_index=1	SYM_TXT_CODE=L03_cs
C          0.00000        0.00000        0.00000
H          0.00000        0.00000        1.08900
H          1.02672        0.00000       -0.36300
H         -0.51336       -0.88916       -0.36300
H         -0.51336        0.88916       -0.36300
5
i =        0, time =        0.000, E =        -7.5473172209	mol_index=1	SYM_TXT_CODE=L04_s4
C          0.00000        0.00000        0.00000
H          0.00000        0.00000        1.08900
H          1.02672        0.00000       -0.36300
H         -0.51336       -0.88916       -0.36300
H         -0.51336        0.88916       -0.36300
5
i =        0, time =        0.000, E =        -7.5473172209	mol_index=1	SYM_TXT_CODE=L05_ch
C          0.00000        0.00000        0.00000
H          0.00000        0.00000        1.08900
H          1.02672        0.00000       -0.36300
H         -0.51336       -0.88916       -0.36300
H         -0.51336        0.88916       -0.36300
5
i =        2, time =        0.800, E =        -7.5504891018	mol_index=2	SYM_TXT_CODE=L01_c2
C          0.00169       -0.00287       -0.00240
H          0.00156       -0.01985        1.10272
H          1.02667        0.01016       -0.36345
H         -0.50954       -0.88833       -0.37080
H         -0.52038        0.90088       -0.36607
5
i =        2, time =        0.800, E =        -7.5504891018	mol_index=2	SYM_TXT_CODE=L02_c3
C          0.00938        0.00008       -0.00331
H         -0.00009       -0.01172        1.09892
H          1.02516        0.00827       -0.36157
H         -0.51336       -0.89577       -0.37659
H         -0.52109        0.89914       -0.35745
5
i =        2, time =        0.800, E =        -7.5504891018	mol_index=2	SYM_TXT_CODE=L03_cs
C          0.00971        0.00181       -0.00234
H          0.00140       -0.01994        1.10272
H          1.02511        0.00798       -0.36173
H         -0.51218       -0.88860       -0.37256
H         -0.52404        0.89875       -0.36610
5
i =        2, time =        0.800, E =        -7.5504891018	mol_index=2	SYM_TXT_CODE=L04_s4
C          0.00000        0.00000        0.00000
H          0.00152       -0.01563        1.09591
H          1.03431        0.01225       -0.36235
H         -0.51635       -0.89187       -0.37309
H         -0.51948        0.89524       -0.36046
5
i =        2, time =        0.800, E =        -7.5504891018	mol_index=2	SYM_TXT_CODE=L05_ch
C          0.00971        0.00181       -0.00234
H          0.00140       -0.01994        1.10272
H          1.02511        0.00798       -0.36173
H         -0.51218       -0.88860       -0.37256
H         -0.52404        0.89875       -0.36610
5
i =        4, time =        1.600, E =        -7.5561533990	mol_index=3	SYM_TXT_CODE=L01_c2
C          0.00327       -0.00545       -0.00466
H          0.00649       -0.04459        1.11981
H          1.03298        0.02645       -0.36198
H         -0.51434       -0.89019       -0.37658
H         -0.52840        0.91377       -0.37659
5
i =        4, time =        1.600, E =        -7.5561533990	mol_index=3	SYM_TXT_CODE=L02_c3
C          0.01870        0.00030       -0.00658
H         -0.00049       -0.02292        1.11309
H          1.02874        0.01635       -0.36191
H         -0.51560       -0.90596       -0.39102
H         -0.53134        0.91223       -0.35359
5
i =        4, time =        1.600, E =        -7.5561533990	mol_index=3	SYM_TXT_CODE=L03_cs
C          0.01939        0.00405       -0.00444
H          0.00606       -0.04483        1.11980
H          1.02979        0.02206       -0.35866
H         -0.51966       -0.89081       -0.38002
H         -0.53558        0.90954       -0.37669
5
i =        4, time =        1.600, E =        -7.5561533990	mol_index=3	SYM_TXT_CODE=L04_s4
C          0.00000        0.00000        0.00000
H          0.00656       -0.03652        1.10715
H          1.04728        0.03024       -0.35980
H         -0.52706       -0.89676       -0.38106
H         -0.52678        0.90305       -0.36630
5
i =        4, time =        1.600, E =        -7.5561533990	mol_index=3	SYM_TXT_CODE=L05_ch
C          0.01939        0.00405       -0.00444
H          0.00606       -0.04483        1.11980
H          1.02979        0.02206       -0.35866
H         -0.51966       -0.89081       -0.38002
H         -0.53558        0.90954       -0.37669
