12
mol_index=1; GUSFAD  **FRAG**        1	SYM_TXT_CODE=L01_c2
O          0.23152        0.49197       -1.98083
C         -0.41828       -0.67408       -2.47998
C         -0.88266       -1.56223       -1.32957
O          0.24262       -1.81392       -0.52856
C         -0.09180       -2.45176        0.69316
C         -0.37549       -1.43811        1.75681
O          0.75454       -0.58443        1.83881
C          0.50571        0.69022        2.45086
C         -0.15995        1.62354        1.50011
O          0.71333        1.76283        0.39842
C          0.13801        2.45411       -0.72941
C         -0.65760        1.50183       -1.58984
12
mol_index=1; GUSFAD  **FRAG**        1	SYM_TXT_CODE=L02_cs
O          0.23152        0.49197       -1.98083
C         -0.41828       -0.67408       -2.47998
C         -0.88266       -1.56223       -1.32957
O          0.24262       -1.81392       -0.52856
C         -0.09180       -2.45176        0.69316
C         -0.37549       -1.43811        1.75681
O          0.75454       -0.58443        1.83881
C          0.50571        0.69022        2.45086
C         -0.15995        1.62354        1.50011
O          0.71333        1.76283        0.39842
C          0.13801        2.45411       -0.72941
C         -0.65760        1.50183       -1.58984
12
mol_index=1; GUSFAD  **FRAG**        1	SYM_TXT_CODE=L03_c4
O          0.23152        0.49197       -1.98083
C         -0.41828       -0.67408       -2.47998
C         -0.88266       -1.56223       -1.32957
O          0.24262       -1.81392       -0.52856
C         -0.09180       -2.45176        0.69316
C         -0.37549       -1.43811        1.75681
O          0.75454       -0.58443        1.83881
C          0.50571        0.69022        2.45086
C         -0.15995        1.62354        1.50011
O          0.71333        1.76283        0.39842
C          0.13801        2.45411       -0.72941
C         -0.65760        1.50183       -1.58984
12
mol_index=1; GUSFAD  **FRAG**        1	SYM_TXT_CODE=L04_s4
O          0.23152        0.49197       -1.98083
C         -0.41828       -0.67408       -2.47998
C         -0.88266       -1.56223       -1.32957
O          0.24262       -1.81392       -0.52856
C         -0.09180       -2.45176        0.69316
C         -0.37549       -1.43811        1.75681
O          0.75454       -0.58443        1.83881
C          0.50571        0.69022        2.45086
C         -0.15995        1.62354        1.50011
O          0.71333        1.76283        0.39842
C          0.13801        2.45411       -0.72941
C         -0.65760        1.50183       -1.58984
12
mol_index=1; GUSFAD  **FRAG**        1	SYM_TXT_CODE=L05_ch
O          0.23152        0.49197       -1.98083
C         -0.41828       -0.67408       -2.47998
C         -0.88266       -1.56223       -1.32957
O          0.24262       -1.81392       -0.52856
C         -0.09180       -2.45176        0.69316
C         -0.37549       -1.43811        1.75681
O          0.75454       -0.58443        1.83881
C          0.50571        0.69022        2.45086
C         -0.15995        1.62354        1.50011
O          0.71333        1.76283        0.39842
C          0.13801        2.45411       -0.72941
C         -0.65760        1.50183       -1.58984
12
mol_index=2; GUSFAD  **FRAG**        2	SYM_TXT_CODE=L01_c2
O         -0.10949        1.05844        1.65877
C          0.41352        2.29138        0.94095
C          0.73842        2.03451       -0.44240
O         -0.46768        1.66560       -0.97957
C         -0.33930        1.07396       -2.33439
C          0.07753       -0.34309       -2.27497
O         -0.85756       -0.96714       -1.50130
C         -0.47402       -2.29489       -0.97838
C          0.37390       -2.16111        0.28850
O         -0.45975       -1.58809        1.15368
C          0.23760       -1.04023        2.37777
C          0.86680        0.27062        2.09136
12
mol_index=2; GUSFAD  **FRAG**        2	SYM_TXT_CODE=L02_cs
O         -0.10949        1.05844        1.65877
C          0.41352        2.29138        0.94095
C          0.73842        2.03451       -0.44240
O         -0.46768        1.66560       -0.97957
C         -0.33930        1.07396       -2.33439
C          0.07753       -0.34309       -2.27497
O         -0.85756       -0.96714       -1.50130
C         -0.47402       -2.29489       -0.97838
C          0.37390       -2.16111        0.28850
O         -0.45975       -1.58809        1.15368
C          0.23760       -1.04023        2.37777
C          0.86680        0.27062        2.09136
12
mol_index=2; GUSFAD  **FRAG**        2	SYM_TXT_CODE=L03_c4
O         -0.10949        1.05844        1.65877
C          0.41352        2.29138        0.94095
C          0.73842        2.03451       -0.44240
O         -0.46768        1.66560       -0.97957
C         -0.33930        1.07396       -2.33439
C          0.07753       -0.34309       -2.27497
O         -0.85756       -0.96714       -1.50130
C         -0.47402       -2.29489       -0.97838
C          0.37390       -2.16111        0.28850
O         -0.45975       -1.58809        1.15368
C          0.23760       -1.04023        2.37777
C          0.86680        0.27062        2.09136
12
mol_index=2; GUSFAD  **FRAG**        2	SYM_TXT_CODE=L04_s4
O         -0.10949        1.05844        1.65877
C          0.41352        2.29138        0.94095
C          0.73842        2.03451       -0.44240
O         -0.46768        1.66560       -0.97957
C         -0.33930        1.07396       -2.33439
C          0.07753       -0.34309       -2.27497
O         -0.85756       -0.96714       -1.50130
C         -0.47402       -2.29489       -0.97838
C          0.37390       -2.16111        0.28850
O         -0.45975       -1.58809        1.15368
C          0.23760       -1.04023        2.37777
C          0.86680        0.27062        2.09136
12
mol_index=2; GUSFAD  **FRAG**        2	SYM_TXT_CODE=L05_ch
O         -0.10949        1.05844        1.65877
C          0.41352        2.29138        0.94095
C          0.73842        2.03451       -0.44240
O         -0.46768        1.66560       -0.97957
C         -0.33930        1.07396       -2.33439
C          0.07753       -0.34309       -2.27497
O         -0.85756       -0.96714       -1.50130
C         -0.47402       -2.29489       -0.97838
C          0.37390       -2.16111        0.28850
O         -0.45975       -1.58809        1.15368
C          0.23760       -1.04023        2.37777
C          0.86680        0.27062        2.09136
12
mol_index=3; GUSPIV  **FRAG**        1	SYM_TXT_CODE=L01_c2
O          0.50018        1.59806       -1.25911
C         -0.37028        0.72641       -2.15687
C         -1.70081        0.93783       -1.51993
O         -1.92996        0.48848       -0.33579
C         -2.04470       -0.99265       -0.18331
C         -1.85977       -1.15182        1.27833
O         -0.61289       -0.77873        1.81708
C          0.49020       -1.66337        1.47052
C          1.70240       -0.81863        1.73450
O          1.78881        0.32686        0.89566
C          2.16040        0.04121       -0.53578
C          1.87639        1.28634       -1.20525
12
mol_index=3; GUSPIV  **FRAG**        1	SYM_TXT_CODE=L02_cs
O          0.50018        1.59806       -1.25911
C         -0.37028        0.72641       -2.15687
C         -1.70081        0.93783       -1.51993
O         -1.92996        0.48848       -0.33579
C         -2.04470       -0.99265       -0.18331
C         -1.85977       -1.15182        1.27833
O         -0.61289       -0.77873        1.81708
C          0.49020       -1.66337        1.47052
C          1.70240       -0.81863        1.73450
O          1.78881        0.32686        0.89566
C          2.16040        0.04121       -0.53578
C          1.87639        1.28634       -1.20525
12
mol_index=3; GUSPIV  **FRAG**        1	SYM_TXT_CODE=L03_c4
O          0.50018        1.59806       -1.25911
C         -0.37028        0.72641       -2.15687
C         -1.70081        0.93783       -1.51993
O         -1.92996        0.48848       -0.33579
C         -2.04470       -0.99265       -0.18331
C         -1.85977       -1.15182        1.27833
O         -0.61289       -0.77873        1.81708
C          0.49020       -1.66337        1.47052
C          1.70240       -0.81863        1.73450
O          1.78881        0.32686        0.89566
C          2.16040        0.04121       -0.53578
C          1.87639        1.28634       -1.20525
12
mol_index=3; GUSPIV  **FRAG**        1	SYM_TXT_CODE=L04_s4
O          0.50018        1.59806       -1.25911
C         -0.37028        0.72641       -2.15687
C         -1.70081        0.93783       -1.51993
O         -1.92996        0.48848       -0.33579
C         -2.04470       -0.99265       -0.18331
C         -1.85977       -1.15182        1.27833
O         -0.61289       -0.77873        1.81708
C          0.49020       -1.66337        1.47052
C          1.70240       -0.81863        1.73450
O          1.78881        0.32686        0.89566
C          2.16040        0.04121       -0.53578
C          1.87639        1.28634       -1.20525
12
mol_index=3; GUSPIV  **FRAG**        1	SYM_TXT_CODE=L05_ch
O          0.50018        1.59806       -1.25911
C         -0.37028        0.72641       -2.15687
C         -1.70081        0.93783       -1.51993
O         -1.92996        0.48848       -0.33579
C         -2.04470       -0.99265       -0.18331
C         -1.85977       -1.15182        1.27833
O         -0.61289       -0.77873        1.81708
C          0.49020       -1.66337        1.47052
C          1.70240       -0.81863        1.73450
O          1.78881        0.32686        0.89566
C          2.16040        0.04121       -0.53578
C          1.87639        1.28634       -1.20525
