       5
 i =      202, time =       80.800, E =        -7.5977374621
  C         0.0613380087        0.1052337459        0.3068239830
  H         0.0029361237       -0.0930809202        1.4098100877
  H         1.2000865314        0.2735232007        0.3768767884
  H        -0.5376682232       -0.6350480740       -0.2166440493
  H        -0.0786217373        1.0223509644       -0.3146570787
       5
 i =      204, time =       81.600, E =        -7.5974073325
  C         0.0632850796        0.1089774854        0.3079175398
  H         0.0016749112       -0.1035938318        1.4051503083
  H         1.1981142953        0.2796997554        0.3895972963
  H        -0.5412581546       -0.6187504242       -0.2073027861
  H        -0.0655639646        1.0081062348       -0.3014769459
       5
 i =      206, time =       82.400, E =        -7.5966528575
  C         0.0656265572        0.1127380048        0.3093478855
  H         0.0005421085       -0.1157045685        1.4006172147
  H         1.1960685101        0.2865135814        0.4029364610
  H        -0.5473646267       -0.6039950338       -0.1978190522
  H        -0.0513468345        0.9953096219       -0.2904220909
