21
mol_index=1; BAXZAB  **FRAG**        1	SYM_TXT_CODE=L01_c7
O         -1.68077       -0.16247       -2.56855
C         -2.58646        0.84759       -3.00376
C         -2.34119        2.09835       -2.22613
O         -2.56934        1.81774       -0.84873
C         -2.82073        2.97453       -0.07548
C         -2.93994        2.55648        1.35463
O         -1.64205        2.24892        1.84294
C         -1.66853        1.67210        3.13657
C         -0.29592        1.69925        3.70478
O          0.55657        0.84087        2.95525
C          1.90708        0.96580        3.38234
C          2.68573       -0.25188        3.00912
O          2.81485       -0.33791        1.59576
C          3.68213       -1.40291        1.23169
C          3.68789       -1.56905       -0.25423
O          2.41374       -2.04091       -0.66895
C          2.45809       -2.72718       -1.91541
C          1.09182       -3.23179       -2.23193
O          0.26520       -2.12910       -2.59535
C         -1.11378       -2.47425       -2.58195
C         -1.90433       -1.39418       -3.24256
21
mol_index=2; YOKTAU  **FRAG**        1	SYM_TXT_CODE=L01_c7
O         -2.81144       -0.14928       -1.88568
C         -3.92286       -0.65219       -1.18565
C         -4.13461        0.03365        0.09852
O         -3.02340       -0.12761        0.94553
C         -3.33247        0.23335        2.26863
C         -2.12809        0.34088        3.12772
O         -1.27682        1.31446        2.59683
C         -0.36385        1.88649        3.53043
C          0.85553        1.09206        3.82350
O          1.68583        1.06128        2.67580
C          2.89362        0.35449        2.92414
C          3.78412        0.45099        1.73617
O          3.24811       -0.28181        0.66655
C          4.12506       -0.24253       -0.46750
C          3.59888       -1.12582       -1.53019
O          2.45487       -0.56974       -2.11902
C          1.99049       -1.35683       -3.19916
C          0.85275       -0.68529       -3.89941
O         -0.31588       -0.65873       -3.10251
C         -1.48531       -0.22895       -3.84124
C         -2.69458       -0.68884       -3.16336
21
mol_index=3; YOKTAU  **FRAG**        2	SYM_TXT_CODE=L01_c7
O         -2.77290       -0.20280       -1.92089
C         -3.94836       -0.51295       -1.20945
C         -4.01085       -0.12349        0.10380
O         -2.99639       -0.19563        0.94053
C         -3.31622        0.07583        2.30747
C         -2.08150        0.24023        3.12853
O         -1.34056        1.23969        2.64507
C         -0.40685        1.82094        3.60059
C          0.82488        1.04033        3.82431
O          1.60364        1.05492        2.71129
C          2.84356        0.33733        2.92047
C          3.69433        0.46929        1.75935
O          3.23141       -0.25285        0.68369
C          4.08620       -0.18675       -0.46893
C          3.58646       -1.03294       -1.54056
O          2.44256       -0.51514       -2.12672
C          2.03120       -1.23663       -3.26994
C          0.86609       -0.62698       -3.90531
O         -0.25555       -0.61105       -3.13772
C         -1.47986       -0.28330       -3.89860
C         -2.60124       -0.49809       -3.14689
21
mol_index=4; YOKTAU  **FRAG**        3	SYM_TXT_CODE=L01_c7
O         -2.96192        0.16896       -1.57650
C         -4.00844       -0.30167       -0.74202
C         -4.01314        0.52876        0.50412
O         -2.96865        0.12101        1.36769
C         -2.90281        0.88516        2.56684
C         -2.09429        0.21319        3.54899
O         -0.71522        0.13924        3.15076
C          0.19804        0.03415        4.23134
C          1.41286       -0.47830        3.86891
O          1.95510       -0.06045        2.70331
C          3.26837       -0.43909        2.43261
C          3.79623        0.11795        1.29833
O          3.16219       -0.09170        0.09694
C          3.86351        0.35993       -1.03286
C          3.44297       -0.23303       -2.23649
O          2.10869        0.03438       -2.48034
C          1.69165       -0.41827       -3.75333
C          0.36762        0.16860       -4.10905
O         -0.66318       -0.39742       -3.34168
C         -1.96013        0.13633       -3.68397
C         -2.97938       -0.48773       -2.81369
21
mol_index=5; YOKTAU  **FRAG**        4	SYM_TXT_CODE=L01_c7
O         -2.90840        0.04293       -1.67206
C         -3.93355       -0.42564       -0.88008
C         -4.15935        0.33354        0.38172
O         -3.07278        0.09281        1.27214
C         -3.09512        0.99675        2.32811
C         -2.26012        0.59349        3.37513
O         -0.85322        0.36320        3.05073
C         -0.14239        0.16943        4.04630
C          1.22011       -0.16593        3.95905
O          1.83213        0.02031        2.71962
C          3.06980       -0.20682        2.53617
C          3.84204        0.20199        1.53613
O          3.27930       -0.16383        0.23182
C          3.95376        0.16064       -0.77717
C          3.59794       -0.41552       -2.02554
O          2.21108       -0.09092       -2.36784
C          1.87908       -0.55277       -3.59160
C          0.60953        0.05038       -4.05694
O         -0.50376       -0.49040       -3.33432
C         -1.71336        0.03313       -3.74821
C         -2.85279       -0.54681       -2.98307
21
mol_index=6; ZAPFUR  **FRAG**        1	SYM_TXT_CODE=L01_c7
O          0.34744       -2.33291        1.87925
C          1.15725       -3.40649        1.44469
C          2.50279       -2.96413        1.13840
O          2.54676       -2.22865       -0.05666
C          3.81672       -1.64231       -0.36818
C          3.76378       -1.03705       -1.68890
O          2.88354        0.01391       -1.59334
C          2.81183        0.87150       -2.86301
C          1.65352        1.64432       -2.81720
O          0.51825        0.82928       -2.78316
C         -0.74773        1.42440       -3.23474
C         -1.23166        2.48859       -2.50436
O         -1.90588        1.99925       -1.37737
C         -2.44050        3.11566       -0.60772
C         -3.20372        2.66268        0.44204
O         -2.38836        1.93816        1.43683
C         -3.18140        1.36530        2.45256
C         -2.43655        0.41939        3.27195
O         -1.94159       -0.60834        2.44209
C         -1.58773       -1.76662        3.15153
C         -0.93685       -2.78586        2.23528
