21
mol_index=1; BAXZAB  **FRAG**        1	SYM_TXT_CODE=L01_c7
O         -1.82123       -0.20108       -2.64900
C         -2.88091        0.45580       -2.65443
C         -3.28075        1.31555       -1.78218
O         -2.68478        1.62731       -0.71996
C         -3.13949        2.38128        0.16279
C         -2.59650        2.69624        1.28787
O         -1.50463        2.25993        1.73301
C         -1.04875        2.49371        2.86966
C          0.03573        2.03687        3.39412
O          0.83054        1.22040        2.86275
C          1.81694        0.70843        3.42786
C          2.63383       -0.16604        2.95051
O          2.56231       -0.70849        1.81856
C          3.29966       -1.63021        1.41706
C          3.24137       -2.25364        0.29109
O          2.38661       -2.07425       -0.61328
C          2.28289       -2.76116       -1.64858
C          1.40087       -2.65394       -2.58153
O          0.43575       -1.84843       -2.60153
C         -0.46773       -1.83280       -3.46056
C         -1.50175       -1.06550       -3.50423
21
mol_index=2; YOKTAU  **FRAG**        1	SYM_TXT_CODE=L01_c7
O         -2.66429       -0.31849       -1.83247
C         -3.85094       -0.21925       -1.24394
C         -4.05849        0.05113        0.06576
O         -3.10779        0.41586        0.85235
C         -3.38435        0.67140        2.12615
C         -2.47140        0.82124        3.11385
O         -1.20909        0.90194        2.87792
C         -0.36934        1.05477        3.89567
C          0.97479        0.90976        3.83411
O          1.60205        0.77372        2.71894
C          2.92375        0.64216        2.73212
C          3.68502        0.25005        1.68417
O          3.20880        0.12775        0.49512
C          4.01514       -0.25571       -0.48831
C          3.61843       -0.66113       -1.71703
O          2.40122       -0.54954       -2.11895
C          2.08300       -0.96274       -3.34057
C          0.82517       -1.13763       -3.80831
O         -0.21254       -0.74814       -3.15483
C         -1.41774       -0.94651       -3.67686
C         -2.59139       -0.82065       -3.01489
21
mol_index=3; YOKTAU  **FRAG**        2	SYM_TXT_CODE=L01_c7
O         -2.63974       -0.33001       -1.86088
C         -3.85972       -0.23892       -1.25449
C         -4.00388       -0.00083        0.05446
O         -3.11963        0.33866        0.83259
C         -3.40341        0.58674        2.14495
C         -2.45569        0.71462        3.08106
O         -1.24939        0.80972        2.88503
C         -0.38424        0.97216        3.92881
C          0.94067        0.83295        3.80202
O          1.56265        0.72844        2.75091
C          2.92431        0.62713        2.75381
C          3.62767        0.26505        1.67445
O          3.19898        0.15604        0.53122
C          4.03081       -0.18855       -0.49526
C          3.58195       -0.56144       -1.69955
O          2.42739       -0.47646       -2.10256
C          2.10206       -0.86065       -3.37178
C          0.83793       -1.02415       -3.77929
O         -0.17108       -0.69277       -3.16714
C         -1.40956       -0.88307       -3.70967
C         -2.53808       -0.77465       -2.99868
21
mol_index=4; YOKTAU  **FRAG**        3	SYM_TXT_CODE=L01_c7
O         -2.92162        0.05447       -1.51055
C         -4.00822        0.16574       -0.75513
C         -4.05321        0.14084        0.53207
O         -3.00032        0.13667        1.34165
C         -3.08471        0.22634        2.66399
C         -2.10889        0.15092        3.50161
O         -0.82006        0.10663        3.18383
C          0.16270        0.14459        4.07629
C          1.42277        0.02859        3.83489
O          1.97737       -0.01303        2.62877
C          3.28863       -0.01796        2.41828
C          3.88236       -0.13403        1.28093
O          3.28545       -0.13220        0.09446
C          3.93921       -0.13890       -1.06152
C          3.41775       -0.21448       -2.23706
O          2.11917       -0.16114       -2.51073
C          1.62453       -0.12717       -3.74276
C          0.37880       -0.15219       -4.06999
O         -0.64324       -0.07807       -3.22502
C         -1.91241        0.00841       -3.60640
C         -2.94608        0.00595       -2.83761
21
mol_index=5; YOKTAU  **FRAG**        4	SYM_TXT_CODE=L01_c7
O         -2.86473       -0.04649       -1.62841
C         -3.90376        0.09996       -0.99010
C         -4.11503        0.18788        0.31506
O         -3.05781        0.18010        1.21568
C         -3.19882        0.33604        2.42575
C         -2.30891        0.35665        3.40731
O         -0.94920        0.24770        3.14614
C         -0.08435        0.33852        4.01347
C          1.23601        0.26077        3.93348
O          1.87328        0.10542        2.70929
C          3.09438        0.10554        2.57746
C          3.85035       -0.02756        1.49736
O          3.28424       -0.13961        0.23409
C          3.94373       -0.18747       -0.80093
C          3.56544       -0.29122       -2.06660
O          2.22121       -0.30287       -2.41558
C          1.82412       -0.31987       -3.57770
C          0.59584       -0.33167       -4.07468
O         -0.51534       -0.26143       -3.24447
C         -1.66834       -0.19195       -3.66189
C         -2.82230       -0.11845       -3.01474
21
mol_index=6; ZAPFUR  **FRAG**        1	SYM_TXT_CODE=L01_c7
O          0.42821       -2.26387        2.13006
C          1.49955       -3.02389        2.00593
C          2.39804       -2.88185        1.11024
O          2.30616       -2.12142        0.16383
C          3.24536       -2.07458       -0.76165
C          3.31115       -1.20553       -1.69447
O          2.43344       -0.39837       -1.94044
C          2.53990        0.42801       -2.96345
C          1.75242        1.40437       -3.20079
O          0.71421        1.60778       -2.59818
C         -0.08559        2.59938       -2.94147
C         -1.10439        2.98255       -2.27442
O         -1.55691        2.38636       -1.31412
C         -2.65408        2.80444       -0.71225
C         -3.10806        2.34060        0.38706
O         -2.66973        1.35109        0.94484
C         -3.23143        0.88878        2.04555
C         -2.74976       -0.03807        2.77950
O         -1.78626       -0.71846        2.47764
C         -1.38289       -1.70507        3.25525
C         -0.29932       -2.36228        3.10134
