       5
 i =        0, time =        0.000, E =        -7.5473172209
  C         0.0000000000        0.0000000000        0.0000000000
  H         0.0000000000        0.0000000000        1.0890000000
  H         1.0267200000        0.0000000000       -0.3629960000
  H        -0.5133600000       -0.8891650000       -0.3630000000
  H        -0.5133600000        0.8891650000       -0.3630000000
       5
 i =        2, time =        0.800, E =        -7.5504891018
  C         0.0045397956        0.0013447861       -0.0017825343
  H        -0.0046195302       -0.0229738588        1.1028123885
  H         1.0202548706        0.0069560202       -0.3602830306
  H        -0.5158442954       -0.8917051555       -0.3677777000
  H        -0.5279696132        0.9001571690       -0.3639774710
       5
 i =        4, time =        1.600, E =        -7.5561533990
  C         0.0086971147        0.0029880117       -0.0033928035
  H        -0.0062834972       -0.0507940999        1.1201910411
  H         1.0197107615        0.0199213691       -0.3559170103
  H        -0.5273999901       -0.8970675213       -0.3708165766
  H        -0.5437344642        0.9118319150       -0.3725559194
