11
mol_index=1; APESOF  **FRAG**        1	SYM_TXT_CODE=L01_c2
C          0.23368       -1.99192       -0.25435
C          0.94895       -1.29499       -1.22456
C          1.88953       -0.47084       -0.57415
C          1.75536       -0.66942        0.80860
C          0.73014       -1.61128        1.03209
Fe         0.00400        0.00297        0.02119
C         -1.38147        0.94750        1.17347
C         -0.39274        1.86223        0.75657
C         -0.40877        1.86170       -0.67382
C         -1.38771        0.96866       -1.10137
C         -1.99099        0.39539        0.03633
11
mol_index=2; AROVEK  **FRAG**        1	SYM_TXT_CODE=L01_c2
C          1.86169        0.11669        0.92273
C          1.11661        1.32144        1.09175
C         -0.09674        0.99678        1.76507
C         -0.10788       -0.40622        2.00104
C          1.09140       -0.94994        1.47308
Fe         0.02285       -0.01495       -0.01001
C         -1.39598       -1.13865       -0.96936
C         -0.15666       -1.23229       -1.66968
C          0.22661        0.08757       -2.05049
C         -0.77941        0.98678       -1.61233
C         -1.78248        0.23279       -0.94181
