10
mol_index=1; AHUDOY  **FRAG**        1 SYM_TXT_CODE=L01_s10
C         -1.91772       -0.90310       -0.08844
C         -1.22352       -1.20667       -1.24419
C          0.08680       -1.63233       -1.35242
C          1.21519       -0.85149       -1.51636
C          2.02819       -0.32841       -0.52881
C          1.91772        0.90310        0.08844
C          1.22352        1.20667        1.24419
C         -0.08680        1.63233        1.35242
C         -1.21519        0.85149        1.51636
C         -2.02819        0.32841        0.52881
10
mol_index=21; FUSCON  **FRAG**        1 SYM_TXT_CODE=L01_s10
C         -1.51809       -0.83244        0.98522
C         -1.45141        0.35184        1.31827
C         -0.77584        1.37672        1.21282
C          0.14158        1.90075        0.57908
C          1.05942        1.67374       -0.21081
C          1.51809        0.83244       -0.98522
C          1.45141       -0.35184       -1.31827
C          0.77584       -1.37672       -1.21282
C         -0.14158       -1.90075       -0.57908
C         -1.05942       -1.67374        0.21081
10
mol_index=33; GUYFEN  **FRAG**        2 SYM_TXT_CODE=L01_s10
C         -0.47219       -1.06838        1.07656
C         -0.87888        0.92548        0.94575
C          0.38707        1.49693        0.36437
C          0.47219        1.06838       -1.07656
C         -0.74115        0.23206       -1.38573
C         -1.57615        0.14375       -0.13586
C         -0.38707       -1.49693       -0.36437
C          0.87888       -0.92548       -0.94575
C          1.57615       -0.14375        0.13586
C          0.74115       -0.23206        1.38573
