       5
 i =        0, time =        0.000, E =        -7.5473172209
  C         0.0000000000        0.0000000000        0.0000000000
  H         0.0000000000        0.0000000000        1.0890000000
  H         1.0267200000        0.0000000000       -0.3629960000
  H        -0.5133600000       -0.8891650000       -0.3630000000
  H        -0.5133600000        0.8891650000       -0.3630000000
