       5
 i =       18, time =        7.200, E =        -7.5830166354
  C         0.0268714358        0.0316423731       -0.0083638619
  H         0.0229994467       -0.2561248937        1.1846360220
  H         1.1193604586        0.2153965791       -0.2830185549
  H        -0.7242763210       -0.9268239822       -0.3264781521
  H        -0.6221268857        0.9021327400       -0.5263696083
