       5
 i =       28, time =       11.200, E =        -7.5962449530
  C         0.0246165833        0.0530777567       -0.0052404865
  H         0.0581536004       -0.3270241184        1.0868639750
  H         1.1432092850        0.3224668163       -0.1833312481
  H        -0.7816818670       -0.8278118259       -0.2304791106
  H        -0.5984992514        0.7653401054       -0.6066065111
