       5
 i =       30, time =       12.000, E =        -7.5974172083
  C         0.0238917799        0.0560694262       -0.0040459334
  H         0.0644620629       -0.3355703124        1.0619233038
  H         1.1351085574        0.3337418294       -0.1620187034
  H        -0.7815459539       -0.7983076748       -0.2102128126
  H        -0.5891767810        0.7379895722       -0.6178901885
