       5
 i =       32, time =       12.800, E =        -7.5973959169
  C         0.0234086843        0.0585550792       -0.0026694908
  H         0.0702726016       -0.3430409440        1.0391586243
  H         1.1236704356        0.3425570321       -0.1415429990
  H        -0.7789429432       -0.7688957183       -0.1910120928
  H        -0.5800977109        0.7147086196       -0.6290320989
