       5
 i =       40, time =       16.000, E =        -7.5914194973
  C         0.0252455284        0.0653766123        0.0041512143
  H         0.0875870951       -0.3693296512        0.9929946385
  H         1.0666614132        0.3629619009       -0.0768417149
  H        -0.7617695800       -0.6831905434       -0.1334374756
  H        -0.5569447361        0.6722385825       -0.6809515911
