       5
 i =       42, time =       16.800, E =        -7.5904208453
  C         0.0264247501        0.0669919833        0.0060195604
  H         0.0902531183       -0.3760484660        0.9943298186
  H         1.0562468551        0.3665556944       -0.0662394256
  H        -0.7600660462       -0.6742384264       -0.1248777055
  H        -0.5548535087        0.6725561096       -0.6955172725
