       5
 i =       44, time =       17.600, E =        -7.5900593017
  C         0.0275960807        0.0687764176        0.0079181557
  H         0.0921571285       -0.3827273508        1.0000213770
  H         1.0497017595        0.3702649755       -0.0580039896
  H        -0.7604119214       -0.6705722705       -0.1186303037
  H        -0.5536306516        0.6757049762       -0.7097226237
