       5
 i =       46, time =       18.400, E =        -7.5902791682
  C         0.0285726529        0.0707430655        0.0098650079
  H         0.0932371393       -0.3890542408        1.0091689078
  H         1.0475827577        0.3742838723       -0.0520535023
  H        -0.7627353112       -0.6717310720       -0.1145232377
  H        -0.5527960115        0.6808591216       -0.7228735656
