       5
 i =       56, time =       22.400, E =        -7.5931006651
  C         0.0271859460        0.0812966738        0.0220997617
  H         0.0849919347       -0.4013168331        1.0716048728
  H         1.0885846903        0.3958656529       -0.0504451959
  H        -0.7840479826       -0.7223817704       -0.1179762050
  H        -0.5409627486        0.7155954688       -0.7544632205
