       5
 i =       68, time =       27.200, E =        -7.5966841811
  C         0.0179290187        0.0870110335        0.0491612213
  H         0.0506217701       -0.3431971536        1.1057288176
  H         1.1204715239        0.3898502054       -0.0804540874
  H        -0.7528497008       -0.7847034690       -0.1485773343
  H        -0.4961454057        0.7465740492       -0.7011058891
