       5
 i =       78, time =       31.200, E =        -7.5991272852
  C         0.0149384224        0.0815975824        0.0800715021
  H         0.0196448206       -0.2592685475        1.1209725786
  H         1.0854416421        0.3490229159       -0.1016634703
  H        -0.6699278548       -0.7965119605       -0.1802266334
  H        -0.4615009312        0.7779199381       -0.6286402273
