       5
 i =        6, time =        2.400, E =        -7.5627337771
  C         0.0127184586        0.0053552634       -0.0048288361
  H        -0.0057781880       -0.0822229965        1.1390325639
  H         1.0247014699        0.0383173629       -0.3500660988
  H        -0.5472786199       -0.9048300608       -0.3719825130
  H        -0.5599597382        0.9224379656       -0.3873343102
