       5
 i =       82, time =       32.800, E =        -7.5985482854
  C         0.0148229838        0.0770517765        0.0914633481
  H         0.0110309378       -0.2305082809        1.1416508214
  H         1.0708532271        0.3313757975       -0.1052730367
  H        -0.6379800922       -0.7957098481       -0.1938292138
  H        -0.4553417552        0.7966251200       -0.6072636891
