       5
 i =       84, time =       33.600, E =        -7.5982404264
  C         0.0148498884        0.0746108471        0.0965737535
  H         0.0079210858       -0.2181938225        1.1559547602
  H         1.0660567150        0.3238213924       -0.1058467594
  H        -0.6249660952       -0.7954328030       -0.2009370613
  H        -0.4538663781        0.8068834265       -0.5989048934
