       5
 i =       86, time =       34.400, E =        -7.5979749817
  C         0.0149350647        0.0721647150        0.1014432097
  H         0.0056773080       -0.2072256777        1.1722208821
  H         1.0634477556        0.3175519300       -0.1055692415
  H        -0.6145217995       -0.7956039408       -0.2082565456
  H        -0.4531967530        0.8173274168       -0.5919521430
