       5
 i =       90, time =       36.000, E =        -7.5975215888
  C         0.0151000288        0.0674342874        0.1109115821
  H         0.0038665191       -0.1888033984        1.2070731330
  H         1.0651439275        0.3097811821       -0.1023123947
  H        -0.6020659245       -0.7977555849       -0.2233415580
  H        -0.4531916114        0.8372461560       -0.5813872393
