       5
 i =       92, time =       36.800, E =        -7.5973195088
  C         0.0151142477        0.0652004383        0.1156818652
  H         0.0042853689       -0.1810427529        1.2236977490
  H         1.0690936820        0.3085387572       -0.0992204408
  H        -0.5999911057       -0.7996399701       -0.2308994430
  H        -0.4532634778        0.8459591932       -0.5772602698
