       5
 i =       94, time =       37.600, E =        -7.5971403607
  C         0.0150687950        0.0630644910        0.1205503020
  H         0.0055424486       -0.1740658863        1.2386166739
  H         1.0745713700        0.3091050660       -0.0950574572
  H        -0.6004070661       -0.8017916790       -0.2382540923
  H        -0.4529895450        0.8533921123       -0.5735585344
