       5
 i =       96, time =       38.400, E =        -7.5970037182
  C         0.0149732636        0.0610207621        0.1255386538
  H         0.0075797756       -0.1677717321        1.2511859865
  H         1.0810182979        0.3114350898       -0.0897489613
  H        -0.6029771738       -0.8038894222       -0.2452022721
  H        -0.4520915299        0.8592794091       -0.5700494264
