       5
 i =        8, time =        3.200, E =        -7.5688222820
  C         0.0165221919        0.0085487625       -0.0060554142
  H        -0.0035956140       -0.1154804025        1.1571372898
  H         1.0347345512        0.0615750029       -0.3428356901
  H        -0.5738413816       -0.9137855920       -0.3709891376
  H        -0.5757171281        0.9304947064       -0.4068539899
