       5
 i =       20, time =        8.000, E =        -7.5852495308
  C         0.0270620364        0.0365325098       -0.0081254574
  H         0.0300368122       -0.2751258965        1.1733756898
  H         1.1326666234        0.2439864652       -0.2656101621
  H        -0.7448798485       -0.9164143686       -0.3099481162
  H        -0.6224633914        0.8806472765       -0.5469279652
