       5
 i =       26, time =       10.400, E =        -7.5939986057
  C         0.0254427656        0.0495726038       -0.0062461497
  H         0.0514327073       -0.3170323899        1.1121915159
  H         1.1472926789        0.3082259782       -0.2049060176
  H        -0.7786266509       -0.8556618884       -0.2512125762
  H        -0.6072372756        0.7952194682       -0.5944659162
