       5
 i =        2, time =        0.800, E =        -7.5504891018
  C         0.0045397956        0.0013447861       -0.0017825343
  H        -0.0046195302       -0.0229738588        1.1028123885
  H         1.0202548706        0.0069560202       -0.3602830306
  H        -0.5158442954       -0.8917051555       -0.3677777000
  H        -0.5279696132        0.9001571690       -0.3639774710
