       5
 i =       48, time =       19.200, E =        -7.5908928505
  C         0.0291991888        0.0728559070        0.0118993003
  H         0.0934366712       -0.3946294491        1.0207416082
  H         1.0499243528        0.3786589937       -0.0482475846
  H        -0.7666372904       -0.6770288911       -0.1123362026
  H        -0.5518897302        0.6872887762       -0.7343259435
