       5
 i =       60, time =       24.000, E =        -7.5935933961
  C         0.0241684987        0.0845013694        0.0292949290
  H         0.0756571494       -0.3912809021        1.0900362343
  H         1.1091527877        0.3998709251       -0.0587445384
  H        -0.7841693890       -0.7480736894       -0.1264286781
  H        -0.5290796381        0.7275289629       -0.7466636389
