       5
 i =       66, time =       26.400, E =        -7.5956788556
  C         0.0192972424        0.0869351716        0.0435415432
  H         0.0573313728       -0.3581993941        1.1038881125
  H         1.1219424612        0.3947400169       -0.0749223463
  H        -0.7646985944       -0.7779653332       -0.1426342939
  H        -0.5048866726        0.7420189221       -0.7152480138
