       5
 i =       70, time =       28.000, E =        -7.5976432888
  C         0.0167958048        0.0867012579        0.0551130851
  H         0.0438738713       -0.3268765856        1.1070173518
  H         1.1164309522        0.3835224365       -0.0857419086
  H        -0.7387030532       -0.7897690179       -0.1546813770
  H        -0.4876146150        0.7513956362       -0.6860632296
