       5
 i =       72, time =       28.800, E =        -7.5984207900
  C         0.0159366625        0.0860056256        0.0612950451
  H         0.0372503366       -0.3097710293        1.1084455271
  H         1.1102707290        0.3759650932       -0.0906271666
  H        -0.7227073150       -0.7932662519       -0.1609083292
  H        -0.4796282122        0.7567462924       -0.6707454979
