       5
 i =       80, time =       32.000, E =        -7.5988823769
  C         0.0148673604        0.0794179827        0.0859776300
  H         0.0149608043       -0.2442203946        1.1299073488
  H         1.0774888403        0.3398983266       -0.1038712379
  H        -0.6531575483       -0.7961786818       -0.1869334172
  H        -0.4578380463        0.7868846574       -0.6171649083
