       5
 i =      100, time =       40.000, E =        -7.5969782052
  C         0.0147200039        0.0571566239        0.1358426914
  H         0.0136799027       -0.1569853823        1.2678531721
  H         1.0944042614        0.3209861845       -0.0754712576
  H        -0.6129566390       -0.8064280843       -0.2570044238
  H        -0.4474359975        0.8657206377       -0.5628835080
