       5
 i =       14, time =        5.600, E =        -7.5794195784
  C         0.0247405818        0.0216967208       -0.0081918536
  H         0.0100835923       -0.2087163969        1.1898419890
  H         1.0847102085        0.1517416821       -0.3122356026
  H        -0.6696431728       -0.9326744520       -0.3524252016
  H        -0.6120139227        0.9292578394       -0.4792898481
