5
mol_index=1; FUQFOO  **FRAG**        1	SYM_TXT_CODE=L01_c2
Te         0.24761       -0.44996       -0.31955
C          0.82723        0.56672        1.49103
C         -1.54002        0.72857       -0.57114
Cl        -1.05328       -2.08927        1.05019
Cl         1.51846        1.24394       -1.65053
5
mol_index=1; FUQFOO  **FRAG**        1	SYM_TXT_CODE=L02_cs
Te         0.22503       -0.47921       -0.29585
C          0.86815        0.61980        1.44808
C         -1.50059        0.77961       -0.61254
Cl        -1.06436       -2.16033        1.05597
Cl         1.47177        1.24014       -1.59567
5
mol_index=1; FUQFOO  **FRAG**        1	SYM_TXT_CODE=L03_ci
Te         0.00000        0.00000        0.00000
C          1.18383       -0.08130        1.03082
C         -1.18383        0.08130       -1.03082
Cl        -1.26735       -1.70028        1.32645
Cl         1.26735        1.70028       -1.32645
5
mol_index=1; FUQFOO  **FRAG**        1	SYM_TXT_CODE=L04_ch
Te         0.22503       -0.47921       -0.29585
C          0.86815        0.61980        1.44808
C         -1.50059        0.77961       -0.61254
Cl        -1.06436       -2.16033        1.05597
Cl         1.47177        1.24014       -1.59567
5
mol_index=2; ASEHUB  **FRAG**        1	SYM_TXT_CODE=L01_c2
Te         0.49207       -0.10163        0.28423
C          0.05217       -0.20482       -1.79006
C         -1.41742        0.48680        1.00147
Cl         1.09330        2.31189       -0.02584
Cl        -0.22012       -2.49224        0.53020
5
mol_index=2; ASEHUB  **FRAG**        1	SYM_TXT_CODE=L02_cs
Te         0.47349       -0.09254        0.31965
C          0.05350       -0.21405       -1.76280
C         -1.43772        0.50519        1.01031
Cl         1.10879        2.30434       -0.05562
Cl        -0.19806       -2.50293        0.48846
5
mol_index=2; ASEHUB  **FRAG**        1	SYM_TXT_CODE=L03_ci
Te         0.00000        0.00000        0.00000
C          0.74859       -0.34866       -1.38780
C         -0.74859        0.34866        1.38780
Cl         0.65268        2.40290       -0.28035
Cl        -0.65268       -2.40290        0.28035
5
mol_index=2; ASEHUB  **FRAG**        1	SYM_TXT_CODE=L04_ch
Te         0.47349       -0.09254        0.31965
C          0.05350       -0.21405       -1.76280
C         -1.43772        0.50519        1.01031
Cl         1.10879        2.30434       -0.05562
Cl        -0.19806       -2.50293        0.48846
5
mol_index=3; ASEHUB01**FRAG**        1	SYM_TXT_CODE=L01_c2
Te         0.14693        0.55383        0.05432
C         -1.02886       -0.67503        1.31226
C          0.62635       -0.84214       -1.46106
Cl        -1.92568        1.15301       -1.24310
Cl         2.18125       -0.18967        1.33758
5
mol_index=3; ASEHUB01**FRAG**        1	SYM_TXT_CODE=L02_cs
Te         0.16574        0.55189        0.02324
C         -1.02418       -0.66079        1.29367
C          0.63976       -0.85824       -1.47248
Cl        -1.94728        1.15532       -1.20729
Cl         2.16596       -0.18818        1.36287
5
mol_index=3; ASEHUB01**FRAG**        1	SYM_TXT_CODE=L03_ci
Te         0.00000        0.00000        0.00000
C         -0.82425        0.09621        1.38790
C          0.82425       -0.09621       -1.38790
Cl        -2.05291        0.67344       -1.29014
Cl         2.05291       -0.67344        1.29014
5
mol_index=3; ASEHUB01**FRAG**        1	SYM_TXT_CODE=L04_ch
Te         0.16574        0.55189        0.02324
C         -1.02418       -0.66079        1.29367
C          0.63976       -0.85824       -1.47248
Cl        -1.94728        1.15532       -1.20729
Cl         2.16596       -0.18818        1.36287
5
mol_index=4; BIBBOE  **FRAG**        1	SYM_TXT_CODE=L01_c2
Te        -0.66397       -0.14180        0.01052
C          0.94633       -0.06450        1.40527
C          0.79441        0.43626       -1.43286
Cl        -0.02427       -2.55190       -0.39024
Cl        -1.05250        2.32194        0.40730
5
mol_index=4; BIBBOE  **FRAG**        1	SYM_TXT_CODE=L02_cs
Te        -0.66269       -0.14786        0.00952
C          0.93993       -0.03392        1.41043
C          0.79805        0.41877       -1.43585
Cl        -0.02819       -2.55403       -0.40481
Cl        -1.04709        2.31703        0.42071
5
mol_index=4; BIBBOE  **FRAG**        1	SYM_TXT_CODE=L03_ci
Te         0.00000        0.00000        0.00000
C          0.07847       -0.24984        1.41903
C         -0.07847        0.24984       -1.41903
Cl         0.51015       -2.43776       -0.39871
Cl        -0.51015        2.43776        0.39871
5
mol_index=4; BIBBOE  **FRAG**        1	SYM_TXT_CODE=L04_ch
Te        -0.66269       -0.14786        0.00952
C          0.93993       -0.03392        1.41043
C          0.79805        0.41877       -1.43585
Cl        -0.02819       -2.55403       -0.40481
Cl        -1.04709        2.31703        0.42071
5
mol_index=5; BIBCAR  **FRAG**        1	SYM_TXT_CODE=L01_c2
Te         0.00000        0.00000        0.68173
C          0.69000        1.27917       -0.83680
C         -0.69000       -1.27917       -0.83680
Cl         2.22683       -1.21561        0.49593
Cl        -2.22683        1.21561        0.49593
5
mol_index=5; BIBCAR  **FRAG**        1	SYM_TXT_CODE=L02_cs
Te         0.00000        0.00000        0.68173
C          0.69481        1.27655       -0.83680
C         -0.69481       -1.27655       -0.83680
Cl         2.22833       -1.21285        0.49593
Cl        -2.22833        1.21285        0.49593
5
mol_index=5; BIBCAR  **FRAG**        1	SYM_TXT_CODE=L03_ci
Te         0.00000        0.00000        0.00000
C          0.69000        1.27917        0.00000
C         -0.69000       -1.27917        0.00000
Cl         2.22683       -1.21561        0.00000
Cl        -2.22683        1.21561        0.00000
5
mol_index=5; BIBCAR  **FRAG**        1	SYM_TXT_CODE=L04_ch
Te         0.00000        0.00000        0.68173
C          0.69481        1.27655       -0.83680
C         -0.69481       -1.27655       -0.83680
Cl         2.22833       -1.21285        0.49593
Cl        -2.22833        1.21285        0.49593
5
mol_index=7; BOHNAN  **FRAG**        2	SYM_TXT_CODE=L01_c2
Te        -0.11334       -0.50554        0.27972
C          1.11685        1.15340        0.73925
C         -0.78800        0.31333       -1.55082
Cl        -2.00251        0.62317        1.49298
Cl         1.78701       -1.58436       -0.96113
5
mol_index=7; BOHNAN  **FRAG**        2	SYM_TXT_CODE=L02_cs
Te        -0.13209       -0.51349        0.25775
C          1.11291        1.12237        0.72361
C         -0.81167        0.33246       -1.56788
Cl        -1.98676        0.63011        1.51141
Cl         1.81761       -1.57146       -0.92490
5
mol_index=7; BOHNAN  **FRAG**        2	SYM_TXT_CODE=L03_ci
Te         0.00000        0.00000        0.00000
C          0.94858        0.40289        1.15453
C         -0.94858       -0.40289       -1.15453
Cl        -1.89567        1.09969        1.22931
Cl         1.89567       -1.09969       -1.22931
5
mol_index=7; BOHNAN  **FRAG**        2	SYM_TXT_CODE=L04_ch
Te        -0.13209       -0.51349        0.25775
C          1.11291        1.12237        0.72361
C         -0.81167        0.33246       -1.56788
Cl        -1.98676        0.63011        1.51141
Cl         1.81761       -1.57146       -0.92490
5
mol_index=100; OGIBIR  **FRAG**        1	SYM_TXT_CODE=L01_c2
Te        -0.15918        0.05412       -0.53632
C         -1.07091       -1.18301        0.93449
C          1.46871        1.04777        0.40585
Cl        -1.68047        1.87562        0.24649
Cl         1.44184       -1.79450       -1.05051
5
mol_index=100; OGIBIR  **FRAG**        1	SYM_TXT_CODE=L02_cs
Te        -0.12054        0.08935       -0.54423
C         -1.03335       -1.18022        0.90224
C          1.48131        1.09025        0.42778
Cl        -1.71042        1.84835        0.25307
Cl         1.38300       -1.84773       -1.03885
5
mol_index=100; OGIBIR  **FRAG**        1	SYM_TXT_CODE=L03_ci
Te         0.00000        0.00000        0.00000
C         -1.27559       -1.11343        0.24486
C          1.27559        1.11343       -0.24486
Cl        -1.55805        1.83401        0.65896
Cl         1.55805       -1.83401       -0.65896
5
mol_index=100; OGIBIR  **FRAG**        1	SYM_TXT_CODE=L04_ch
Te        -0.12054        0.08935       -0.54423
C         -1.03335       -1.18022        0.90224
C          1.48131        1.09025        0.42778
Cl        -1.71042        1.84835        0.25307
Cl         1.38300       -1.84773       -1.03885
5
mol_index=101; OGIBOX  **FRAG**        1	SYM_TXT_CODE=L01_c2
Te         0.06723       -0.14337        0.58464
C          1.07979        1.29991       -0.63629
C         -1.25781       -0.92023       -0.91195
Cl         1.83367       -1.78433       -0.13127
Cl        -1.72287        1.54802        1.09488
5
mol_index=101; OGIBOX  **FRAG**        1	SYM_TXT_CODE=L02_cs
Te         0.04506       -0.12232        0.59235
C          1.06971        1.30973       -0.63239
C         -1.21095       -0.96483       -0.92861
Cl         1.80644       -1.79243       -0.14475
Cl        -1.71026        1.56985        1.11340
5
mol_index=101; OGIBOX  **FRAG**        1	SYM_TXT_CODE=L03_ci
Te         0.00000        0.00000        0.00000
C          1.16826        1.11122        0.13313
C         -1.16826       -1.11122       -0.13313
Cl         1.77670       -1.66284       -0.62669
Cl        -1.77670        1.66284        0.62669
5
mol_index=101; OGIBOX  **FRAG**        1	SYM_TXT_CODE=L04_ch
Te         0.04506       -0.12232        0.59235
C          1.06971        1.30973       -0.63239
C         -1.21095       -0.96483       -0.92861
Cl         1.80644       -1.79243       -0.14475
Cl        -1.71026        1.56985        1.11340
